<?xml version="1.0" encoding="UTF-8"?>

<!-- generated on 2025-10-05 12:23:24 by Eclipse SUMO sumo Version 1.24.0
<sumoConfiguration xmlns:xsi="http://www.w3.org/2001/XMLSchema-instance" xsi:noNamespaceSchemaLocation="http://sumo.dlr.de/xsd/sumoConfiguration.xsd">

    <input>
        <net-file value="C:\Projects\FDRL-Traffic\FDRL\sumo_files\Berlin\osm.net.xml.gz"/>
        <route-files value="C:\Projects\FDRL-Traffic\FDRL\sumo_files\Berlin\osm_pt.rou.xml,C:\Projects\FDRL-Traffic\FDRL\sumo_files\Berlin\osm.bus.trips.xml,C:\Projects\FDRL-Traffic\FDRL\sumo_files\Berlin\osm.motorcycle.trips.xml,C:\Projects\FDRL-Traffic\FDRL\sumo_files\Berlin\osm.passenger.trips.xml,C:\Projects\FDRL-Traffic\FDRL\sumo_files\Berlin\osm.truck.trips.xml"/>
        <additional-files value="C:\Projects\FDRL-Traffic\FDRL\sumo_files\Berlin\osm.poly.xml.gz,C:\Projects\FDRL-Traffic\FDRL\sumo_files\Berlin\osm_stops.add.xml,C:\Projects\FDRL-Traffic\FDRL\sumo_files\Berlin\output.add.xml"/>
    </input>

    <output>
        <tripinfo-output value="C:\Projects\FDRL-Traffic\FDRL\sumo_files\Berlin\tripinfos.xml"/>
        <stop-output value="C:\Projects\FDRL-Traffic\FDRL\sumo_files\Berlin\stopinfos.xml"/>
        <statistic-output value="C:\Projects\FDRL-Traffic\FDRL\sumo_files\Berlin\stats.xml"/>
    </output>

    <processing>
        <ignore-route-errors value="true"/>
        <tls.actuated.jam-threshold value="30"/>
    </processing>

    <routing>
        <device.rerouting.adaptation-steps value="18"/>
        <device.rerouting.adaptation-interval value="10"/>
    </routing>

    <report>
        <verbose value="true"/>
        <duration-log.statistics value="true"/>
        <no-step-log value="true"/>
    </report>

    <traci_server>
        <remote-port value="51884"/>
    </traci_server>

    <gui_only>
        <gui-settings-file value="C:\Projects\FDRL-Traffic\FDRL\sumo_files\Berlin\osm.view.xml"/>
    </gui_only>

</sumoConfiguration>
